Version 4.1
SHEET 1 880 680
WIRE 112 -144 96 -144
WIRE 144 -144 112 -144
WIRE 256 -144 224 -144
WIRE 112 -80 112 -144
WIRE 112 -80 64 -80
WIRE 64 -48 64 -80
WIRE 112 -48 112 -80
WIRE 80 16 64 16
WIRE 112 16 80 16
WIRE 256 32 256 -144
WIRE 352 32 256 32
WIRE 496 32 432 32
WIRE 560 32 496 32
WIRE 80 48 80 16
WIRE 256 160 256 32
WIRE 256 160 224 160
WIRE -32 224 -192 224
WIRE -192 256 -192 224
WIRE -32 288 -96 288
WIRE -192 352 -192 320
WIRE -32 352 -192 352
WIRE 352 352 224 352
WIRE 560 352 432 352
WIRE 592 352 560 352
WIRE 560 416 560 352
WIRE 560 416 512 416
WIRE 512 432 512 416
WIRE 560 432 560 416
WIRE 512 528 512 496
WIRE 544 528 512 528
WIRE 560 528 560 496
WIRE 560 528 544 528
WIRE 544 560 544 528
FLAG 80 48 0
FLAG -96 288 0
FLAG 544 560 0
FLAG 496 96 0
FLAG -48 -144 0
SYMBOL schottky 32 -160 M90
WINDOW 0 0 32 VBottom 2
WINDOW 3 32 32 VTop 2
SYMATTR InstName D1
SYMBOL voltage 48 -144 M270
WINDOW 0 32 56 VTop 2
WINDOW 3 -32 56 VBottom 2
WINDOW 123 0 0 Left 0
WINDOW 39 0 0 Left 0
SYMATTR InstName V1
SYMATTR Value 9
SYMBOL ind 240 -160 R90
WINDOW 0 5 56 VBottom 2
WINDOW 3 32 56 VTop 2
SYMATTR InstName L1
SYMATTR Value 200n
SYMATTR SpiceLine Rser=1m
SYMBOL cap 96 -48 R0
SYMATTR InstName C1
SYMATTR Value 470”
SYMBOL cap 48 -48 R0
SYMATTR InstName C2
SYMATTR Value 100n
SYMBOL PowerProducts\\LTC1044 96 256 R0
SYMATTR InstName U1
SYMBOL cap -208 256 R0
SYMATTR InstName C3
SYMATTR Value 10”
SYMBOL cap 544 432 R0
SYMATTR InstName C4
SYMATTR Value 10”
SYMBOL ind 336 16 M90
WINDOW 0 5 56 VBottom 2
WINDOW 3 32 56 VTop 2
SYMATTR InstName L2
SYMATTR Value 200n
SYMATTR SpiceLine Rser=1m
SYMBOL cap 480 32 R0
SYMATTR InstName C5
SYMATTR Value 100n
SYMBOL cap 496 432 R0
SYMATTR InstName C6
SYMATTR Value 100n
SYMBOL ind 336 336 M90
WINDOW 0 5 56 VBottom 2
WINDOW 3 32 56 VTop 2
SYMATTR InstName L3
SYMATTR Value 200n
SYMATTR SpiceLine Rser=1m
TEXT -8 408 Left 2 ;Klon vom TC7660
TEXT 224 400 Left 2 ;Negative Ausgansspannung
TEXT -208 584 Left 2 !.tran 10ms
